Version 4
SHEET 1 1388 680
WIRE -400 -224 -752 -224
WIRE 96 -224 -16 -224
WIRE 96 -208 96 -224
WIRE 1040 -176 1008 -176
WIRE 1216 -176 1120 -176
WIRE -16 -160 -16 -224
WIRE -400 -144 -400 -224
WIRE 1008 -144 1008 -176
WIRE 1008 -144 928 -144
WIRE -752 -128 -752 -224
WIRE 96 -112 96 -128
WIRE 224 -112 96 -112
WIRE 368 -112 288 -112
WIRE 496 -112 368 -112
WIRE 96 -80 96 -112
WIRE 368 -80 368 -112
WIRE 928 -80 928 -96
WIRE 1088 -80 1088 -112
WIRE 832 -64 768 -64
WIRE 928 -64 928 -80
WIRE 928 -64 912 -64
WIRE 1008 -64 1008 -144
WIRE 1008 -64 928 -64
WIRE 1056 -64 1008 -64
WIRE 1216 -48 1216 -176
WIRE 1216 -48 1120 -48
WIRE 1328 -48 1216 -48
WIRE -400 -32 -400 -64
WIRE -304 -32 -400 -32
WIRE 832 -32 768 -32
WIRE 1008 -32 912 -32
WIRE 1056 -32 1008 -32
WIRE -400 -16 -400 -32
WIRE 1008 -16 1008 -32
WIRE -16 32 -16 -80
WIRE 32 32 -16 32
WIRE 96 32 96 0
WIRE 96 32 32 32
WIRE 368 32 368 0
WIRE 368 32 96 32
WIRE 1088 48 1088 -16
WIRE 32 64 32 32
WIRE -752 80 -752 -48
WIRE -400 80 -400 64
WIRE -400 80 -752 80
WIRE 1008 96 1008 64
WIRE -752 128 -752 80
FLAG 32 64 0
FLAG 496 -112 Vfiltered
FLAG -752 128 0
FLAG -304 -32 V_2.5ref
FLAG 1088 48 0
FLAG 1088 -112 5V
FLAG 1328 -48 Vvs
FLAG 1008 96 V_ref2.5
FLAG 768 -64 0
FLAG 768 -32 Vfiltered
FLAG 912 32 0
SYMBOL voltage -16 -176 R0
WINDOW 123 0 0 Left 0
WINDOW 39 0 0 Left 0
SYMATTR InstName V1
SYMATTR Value 5
SYMBOL cap 288 -128 R90
WINDOW 0 0 32 VBottom 2
WINDOW 3 32 32 VTop 2
SYMATTR InstName C1
SYMATTR Value 150nf
SYMBOL res 352 -96 R0
SYMATTR InstName R2
SYMATTR Value 100k
SYMBOL res 80 -96 R0
SYMATTR InstName R1
SYMATTR Value 50k
SYMBOL current 96 -208 R0
WINDOW 123 0 0 Left 0
WINDOW 39 0 0 Left 0
SYMATTR InstName I1
SYMATTR Value SINE(88uA 2uA 100)
SYMBOL voltage -752 -144 R0
WINDOW 123 0 0 Left 0
WINDOW 39 0 0 Left 0
SYMATTR InstName V2
SYMATTR Value 5
SYMBOL res -416 -160 R0
SYMATTR InstName R3
SYMATTR Value 10k
SYMBOL res -416 -32 R0
SYMATTR InstName R4
SYMATTR Value 10k
SYMBOL OpAmps\\opamp2 1088 -112 R0
SYMATTR InstName U1
SYMATTR Value LM324
SYMBOL res 1136 -192 R90
WINDOW 0 0 56 VBottom 2
WINDOW 3 32 56 VTop 2
SYMATTR InstName R5
SYMATTR Value 100k
SYMBOL res 928 -80 R90
WINDOW 0 0 56 VBottom 2
WINDOW 3 32 56 VTop 2
SYMATTR InstName R6
SYMATTR Value 100k
SYMBOL res 928 -48 R90
WINDOW 0 0 56 VBottom 2
WINDOW 3 32 56 VTop 2
SYMATTR InstName R7
SYMATTR Value 100k
SYMBOL res 992 -32 R0
SYMATTR InstName R8
SYMATTR Value 100k
SYMBOL cap 912 -144 R0
SYMATTR InstName C2
SYMATTR Value 1n
SYMBOL cap 896 -32 R0
SYMATTR InstName C3
SYMATTR Value 1n
TEXT -48 88 Left 2 !.tran 0 1 0 0.1ms
TEXT 40 -296 Left 2 ;Phototransistor Circuit & Filter circuit
TEXT 832 -288 Left 2 ;Amplification & Level Shifting Circuit
TEXT -656 -304 Left 2 ;Voltage Divder Circuit
TEXT -88 336 Left 2 !.lib LM324.lib
