Version 4
SHEET 1 1388 680
WIRE -400 -224 -752 -224
WIRE 96 -224 -16 -224
WIRE 96 -208 96 -224
WIRE -752 -160 -752 -224
WIRE -16 -160 -16 -224
WIRE 1040 -160 1040 -192
WIRE -400 -144 -400 -224
WIRE 960 -144 944 -144
WIRE 1008 -144 960 -144
WIRE -752 -128 -752 -160
WIRE 1168 -128 1072 -128
WIRE 1264 -128 1168 -128
WIRE 96 -112 96 -128
WIRE 224 -112 96 -112
WIRE 368 -112 288 -112
WIRE 496 -112 368 -112
WIRE 848 -112 784 -112
WIRE 960 -112 928 -112
WIRE 1008 -112 960 -112
WIRE 96 -80 96 -112
WIRE 368 -80 368 -112
WIRE 1040 -48 1040 -96
WIRE -400 -32 -400 -64
WIRE -304 -32 -400 -32
WIRE -400 -16 -400 -32
WIRE 960 -16 960 -112
WIRE 1088 -16 960 -16
WIRE 1168 -16 1168 -128
WIRE -16 32 -16 -80
WIRE 32 32 -16 32
WIRE 96 32 96 0
WIRE 96 32 32 32
WIRE 368 32 368 0
WIRE 368 32 96 32
WIRE 32 64 32 32
WIRE -752 80 -752 -48
WIRE -400 80 -400 64
WIRE -400 80 -752 80
WIRE -752 128 -752 80
FLAG 32 64 0
FLAG 496 -112 Vfiltered
FLAG -752 128 0
FLAG 1040 -48 0
FLAG 784 -112 Vfiltered
FLAG 1264 -128 Vout
FLAG 1040 -192 V5
FLAG -752 -160 V5
FLAG 960 -144 V_1volt
FLAG -304 -32 V_1volt
SYMBOL voltage -16 -176 R0
WINDOW 123 0 0 Left 0
WINDOW 39 0 0 Left 0
SYMATTR InstName V1
SYMATTR Value 5
SYMBOL cap 288 -128 R90
WINDOW 0 0 32 VBottom 2
WINDOW 3 32 32 VTop 2
SYMATTR InstName C1
SYMATTR Value 150nf
SYMBOL res 352 -96 R0
SYMATTR InstName R2
SYMATTR Value 100k
SYMBOL res 80 -96 R0
SYMATTR InstName R1
SYMATTR Value 50k
SYMBOL current 96 -208 R0
WINDOW 123 0 0 Left 0
WINDOW 39 0 0 Left 0
SYMATTR InstName I1
SYMATTR Value SINE(88uA 2uA 100)
SYMBOL voltage -752 -144 R0
WINDOW 123 0 0 Left 0
WINDOW 39 0 0 Left 0
SYMATTR InstName V2
SYMATTR Value 5
SYMBOL res -416 -160 R0
SYMATTR InstName R3
SYMATTR Value 40k
SYMBOL res -416 -32 R0
SYMATTR InstName R4
SYMATTR Value 10k
SYMBOL OpAmps\\opamp2 1040 -192 R0
SYMATTR InstName U2
SYMATTR Value LM324
SYMBOL res 944 -128 R90
WINDOW 0 0 56 VBottom 2
WINDOW 3 32 56 VTop 2
SYMATTR InstName R9
SYMATTR Value 10K
SYMBOL res 1184 -32 R90
WINDOW 0 0 56 VBottom 2
WINDOW 3 32 56 VTop 2
SYMATTR InstName R10
SYMATTR Value 160K
TEXT -48 88 Left 2 !.tran 0 1 0 0.1ms
TEXT 40 -296 Left 2 ;Phototransistor Circuit & Filter circuit
TEXT -656 -304 Left 2 ;Voltage Divder Circuit
TEXT -88 336 Left 2 !.lib LM324.lib
TEXT 880 -256 Left 2 ;Schmitt trigger
